data/pypsa_eur_fr400/network.xiidm
<?xml version="1.0" encoding="UTF-8"?>
<iidm:network xmlns:iidm="http://www.powsybl.org/schema/iidm/1_15" id="pypsa_eur_fr400" caseDate="2026-04-17T13:38:59.223Z" forecastDistance="0" sourceFormat="" minimumValidationLevel="STEADY_STATE_HYPOTHESIS">
    <iidm:substation id="SS_relation_13260100-400" name="HAVRE (LE) (CENTRALE)" country="FR">
        <iidm:voltageLevel id="VL_relation_13260100-400" name="HAVRE (LE) (CENTRALE) 400kV" nominalV="400.0" lowVoltageLimit="360.0" highVoltageLimit="440.00000000000006" topologyKind="NODE_BREAKER">
            <iidm:nodeBreakerTopology>
                <iidm:busbarSection id="VL_relation_13260100-400_BBS1" name="HAVRE (LE) (CENTRALE) JdB1" node="0"/>
                <iidm:switch id="VL_relation_13260100-400_D_G_relation_13260100-400" name="D G_relation_13260100-400" kind="DISCONNECTOR" retained="false" open="false" node1="0" node2="2"/>
                <iidm:switch id="VL_relation_13260100-400_BK_G_relation_13260100-400" name="BK G_relation_13260100-400" kind="BREAKER" retained="false" open="false" node1="2" node2="3"/>
                <iidm:switch id="VL_relation_13260100-400_D_L_relation_13260100-400" name="D L_relation_13260100-400" kind="DISCONNECTOR" retained="false" open="false" node1="0" node2="4"/>
                <iidm:switch id="VL_relation_13260100-400_BK_L_relation_13260100-400" name="BK L_relation_13260100-400" kind="BREAKER" retained="false" open="false" node1="4" node2="5"/>
                <iidm:switch id="VL_relation_13260100-400_D_relation_6553337-400_s1" name="D relation_6553337-400_s1" kind="DISCONNECTOR" retained="false" open="false" node1="0" node2="6"/>
                <iidm:switch id="VL_relation_13260100-400_BK_relation_6553337-400_s1" name="BK relation_6553337-400_s1" kind="BREAKER" retained="false" open="false" node1="6" node2="7"/>
                <iidm:switch id="VL_relation_13260100-400_D_relation_6553338-400_s1" name="D relation_6553338-400_s1" kind="DISCONNECTOR" retained="false" open="false" node1="0" node2="8"/>
                <iidm:switch id="VL_relation_13260100-400_BK_relation_6553338-400_s1" name="BK relation_6553338-400_s1" kind="BREAKER" retained="false" open="false" node1="8" node2="9"/>
            </iidm:nodeBreakerTopology>
            <iidm:generator id="G_relation_13260100-400" energySource="OTHER" minP="0.0" maxP="894.7368421052631" voltageRegulatorOn="true" targetP="447.36842105263156" targetV="400.0" targetQ="0.0" node="3">
                <iidm:minMaxReactiveLimits minQ="-1.7976931348623157E308" maxQ="1.7976931348623157E308"/>
            </iidm:generator>
            <iidm:load id="L_relation_13260100-400" loadType="UNDEFINED" p0="147.63779527559055" q0="14.763779527559056" node="5"/>
        </iidm:voltageLevel>
    </iidm:substation>
    <iidm:substation id="SS_virtual_relation_19874522_0-400" name="MANDAL71PEUP5" country="FR">
        <iidm:voltageLevel id="VL_virtual_relation_19874522_0-400" name="MANDAL71PEUP5 400kV" nominalV="400.0" lowVoltageLimit="360.0" highVoltageLimit="440.00000000000006" topologyKind="NODE_BREAKER">
            <iidm:nodeBreakerTopology>
                <iidm:busbarSection id="VL_virtual_relation_19874522_0-400_BBS1" name="MANDAL71PEUP5 JdB1" node="0"/>
                <iidm:switch id="VL_virtual_relation_19874522_0-400_D_G_virtual_relation_19874522_0-400" name="D G_virtual_relation_198745" kind="DISCONNECTOR" retained="false" open="false" node1="0" node2="2"/>
                <iidm:switch id="VL_virtual_relation_19874522_0-400_BK_G_virtual_relation_19874522_0-400" name="BK G_virtual_relation_19874" kind="BREAKER" retained="false" open="false" node1="2" node2="3"/>
                <iidm:switch id="VL_virtual_relation_19874522_0-400_D_L_virtual_relation_19874522_0-400" name="D L_virtual_relation_198745" kind="DISCONNECTOR" retained="false" open="false" node1="0" node2="4"/>
                <iidm:switch id="VL_virtual_relation_19874522_0-400_BK_L_virtual_relation_19874522_0-400" name="BK L_virtual_relation_19874" kind="BREAKER" retained="false" open="false" node1="4" node2="5"/>
                <iidm:switch id="VL_virtual_relation_19874522_0-400_D_relation_19874522-400_s1" name="D relation_19874522-400_s1" kind="DISCONNECTOR" retained="false" open="false" node1="0" node2="6"/>
                <iidm:switch id="VL_virtual_relation_19874522_0-400_BK_relation_19874522-400_s1" name="BK relation_19874522-400_s1" kind="BREAKER" retained="false" open="false" node1="6" node2="7"/>
            </iidm:nodeBreakerTopology>
            <iidm:generator id="G_virtual_relation_19874522_0-400" energySource="OTHER" minP="0.0" maxP="671.0526315789473" voltageRegulatorOn="true" targetP="447.36842105263156" targetV="400.0" targetQ="0.0" node="3">
                <iidm:minMaxReactiveLimits minQ="-1.7976931348623157E308" maxQ="1.7976931348623157E308"/>
            </iidm:generator>
            <iidm:load id="L_virtual_relation_19874522_0-400" loadType="UNDEFINED" p0="147.63779527559055" q0="14.763779527559056" node="5"/>
        </iidm:voltageLevel>
    </iidm:substation>
    <iidm:substation id="SS_virtual_relation_3717716_a_1-400" name=".ASPHL71SIERE" country="FR">
        <iidm:voltageLevel id="VL_virtual_relation_3717716_a_1-400" name=".ASPHL71SIERE 400kV" nominalV="400.0" lowVoltageLimit="360.0" highVoltageLimit="440.00000000000006" topologyKind="NODE_BREAKER">
            <iidm:nodeBreakerTopology>
                <iidm:busbarSection id="VL_virtual_relation_3717716_a_1-400_BBS1" name=".ASPHL71SIERE JdB1" node="0"/>
                <iidm:switch id="VL_virtual_relation_3717716_a_1-400_D_G_virtual_relation_3717716_a_1-400" name="D G_virtual_relation_371771" kind="DISCONNECTOR" retained="false" open="false" node1="0" node2="2"/>
                <iidm:switch id="VL_virtual_relation_3717716_a_1-400_BK_G_virtual_relation_3717716_a_1-400" name="BK G_virtual_relation_37177" kind="BREAKER" retained="false" open="false" node1="2" node2="3"/>
                <iidm:switch id="VL_virtual_relation_3717716_a_1-400_D_L_virtual_relation_3717716_a_1-400" name="D L_virtual_relation_371771" kind="DISCONNECTOR" retained="false" open="false" node1="0" node2="4"/>
                <iidm:switch id="VL_virtual_relation_3717716_a_1-400_BK_L_virtual_relation_3717716_a_1-400" name="BK L_virtual_relation_37177" kind="BREAKER" retained="false" open="false" node1="4" node2="5"/>
                <iidm:switch id="VL_virtual_relation_3717716_a_1-400_D_relation_3717716_a-400_s2" name="D relation_3717716_a-400_s2" kind="DISCONNECTOR" retained="false" open="false" node1="0" node2="6"/>
                <iidm:switch id="VL_virtual_relation_3717716_a_1-400_BK_relation_3717716_a-400_s2" name="BK relation_3717716_a-400_s2" kind="BREAKER" retained="false" open="false" node1="6" node2="7"/>
                <iidm:switch id="VL_virtual_relation_3717716_a_1-400_D_way_60279702-400_s2" name="D way_60279702-400_s2" kind="DISCONNECTOR" retained="false" open="false" node1="0" node2="8"/>
                <iidm:switch id="VL_virtual_relation_3717716_a_1-400_BK_way_60279702-400_s2" name="BK way_60279702-400_s2" kind="BREAKER" retained="false" open="false" node1="8" node2="9"/>
            </iidm:nodeBreakerTopology>
            <iidm:generator id="G_virtual_relation_3717716_a_1-400" energySource="OTHER" minP="0.0" maxP="671.0526315789473" voltageRegulatorOn="true" targetP="447.36842105263156" targetV="400.0" targetQ="0.0" node="3">
                <iidm:minMaxReactiveLimits minQ="-1.7976931348623157E308" maxQ="1.7976931348623157E308"/>
            </iidm:generator>
            <iidm:load id="L_virtual_relation_3717716_a_1-400" loadType="UNDEFINED" p0="147.63779527559055" q0="14.763779527559056" node="5"/>
        </iidm:voltageLevel>
    </iidm:substation>
    <iidm:substation id="SS_virtual_relation_5952075_b_1-400" name="BOUTRL71P.ORG" country="FR">
        <iidm:voltageLevel id="VL_virtual_relation_5952075_b_1-400" name="BOUTRL71P.ORG 400kV" nominalV="400.0" lowVoltageLimit="360.0" highVoltageLimit="440.00000000000006" topologyKind="NODE_BREAKER">
            <iidm:nodeBreakerTopology>
                <iidm:busbarSection id="VL_virtual_relation_5952075_b_1-400_BBS1" name="BOUTRL71P.ORG JdB1" node="0"/>
                <iidm:switch id="VL_virtual_relation_5952075_b_1-400_D_G_virtual_relation_5952075_b_1-400" name="D G_virtual_relation_595207" kind="DISCONNECTOR" retained="false" open="false" node1="0" node2="2"/>
                <iidm:switch id="VL_virtual_relation_5952075_b_1-400_BK_G_virtual_relation_5952075_b_1-400" name="BK G_virtual_relation_59520" kind="BREAKER" retained="false" open="false" node1="2" node2="3"/>
                <iidm:switch id="VL_virtual_relation_5952075_b_1-400_D_L_virtual_relation_5952075_b_1-400" name="D L_virtual_relation_595207" kind="DISCONNECTOR" retained="false" open="false" node1="0" node2="4"/>
                <iidm:switch id="VL_virtual_relation_5952075_b_1-400_BK_L_virtual_relation_5952075_b_1-400" name="BK L_virtual_relation_59520" kind="BREAKER" retained="false" open="false" node1="4" node2="5"/>
                <iidm:switch id="VL_virtual_relation_5952075_b_1-400_D_relation_5952075_b-400_s2" name="D relation_5952075_b-400_s2" kind="DISCONNECTOR" retained="false" open="false" node1="0" node2="6"/>
                <iidm:switch id="VL_virtual_relation_5952075_b_1-400_BK_relation_5952075_b-400_s2" name="BK relation_5952075_b-400_s2" kind="BREAKER" retained="false" open="false" node1="6" node2="7"/>
                <iidm:switch id="VL_virtual_relation_5952075_b_1-400_D_relation_5952075_c-400_s1" name="D relation_5952075_c-400_s1" kind="DISCONNECTOR" retained="false" open="false" node1="0" node2="8"/>
                <iidm:switch id="VL_virtual_relation_5952075_b_1-400_BK_relation_5952075_c-400_s1" name="BK relation_5952075_c-400_s1" kind="BREAKER" retained="false" open="false" node1="8" node2="9"/>
                <iidm:switch id="VL_virtual_relation_5952075_b_1-400_D_relation_7797162_c-400_s2" name="D relation_7797162_c-400_s2" kind="DISCONNECTOR" retained="false" open="false" node1="0" node2="10"/>
                <iidm:switch id="VL_virtual_relation_5952075_b_1-400_BK_relation_7797162_c-400_s2" name="BK relation_7797162_c-400_s2" kind="BREAKER" retained="false" open="false" node1="10" node2="11"/>
                <iidm:switch id="VL_virtual_relation_5952075_b_1-400_D_relation_7797162_d-400_s1" name="D relation_7797162_d-400_s1" kind="DISCONNECTOR" retained="false" open="false" node1="0" node2="12"/>
                <iidm:switch id="VL_virtual_relation_5952075_b_1-400_BK_relation_7797162_d-400_s1" name="BK relation_7797162_d-400_s1" kind="BREAKER" retained="false" open="false" node1="12" node2="13"/>
            </iidm:nodeBreakerTopology>
            <iidm:generator id="G_virtual_relation_5952075_b_1-400" energySource="OTHER" minP="0.0" maxP="671.0526315789473" voltageRegulatorOn="true" targetP="447.36842105263156" targetV="400.0" targetQ="0.0" node="3">
                <iidm:minMaxReactiveLimits minQ="-1.7976931348623157E308" maxQ="1.7976931348623157E308"/>
            </iidm:generator>
            <iidm:load id="L_virtual_relation_5952075_b_1-400" loadType="UNDEFINED" p0="442.9133858267717" q0="44.29133858267717" node="5"/>
        </iidm:voltageLevel>
    </iidm:substation>
    <iidm:substation id="SS_virtual_relation_6492540_a_1-400" name="BRAUDL72CUBNE" country="FR">
        <iidm:voltageLevel id="VL_virtual_relation_6492540_a_1-400" name="BRAUDL72CUBNE 400kV" nominalV="400.0" lowVoltageLimit="360.0" highVoltageLimit="440.00000000000006" topologyKind="NODE_BREAKER">
            <iidm:nodeBreakerTopology>
                <iidm:busbarSection id="VL_virtual_relation_6492540_a_1-400_BBS1" name="BRAUDL72CUBNE JdB1" node="0"/>
                <iidm:switch id="VL_virtual_relation_6492540_a_1-400_D_G_virtual_relation_6492540_a_1-400" name="D G_virtual_relation_649254" kind="DISCONNECTOR" retained="false" open="false" node1="0" node2="2"/>
                <iidm:switch id="VL_virtual_relation_6492540_a_1-400_BK_G_virtual_relation_6492540_a_1-400" name="BK G_virtual_relation_64925" kind="BREAKER" retained="false" open="false" node1="2" node2="3"/>
                <iidm:switch id="VL_virtual_relation_6492540_a_1-400_D_L_virtual_relation_6492540_a_1-400" name="D L_virtual_relation_649254" kind="DISCONNECTOR" retained="false" open="false" node1="0" node2="4"/>
                <iidm:switch id="VL_virtual_relation_6492540_a_1-400_BK_L_virtual_relation_6492540_a_1-400" name="BK L_virtual_relation_64925" kind="BREAKER" retained="false" open="false" node1="4" node2="5"/>
                <iidm:switch id="VL_virtual_relation_6492540_a_1-400_D_relation_6492540_a-400_s2" name="D relation_6492540_a-400_s2" kind="DISCONNECTOR" retained="false" open="false" node1="0" node2="6"/>
                <iidm:switch id="VL_virtual_relation_6492540_a_1-400_BK_relation_6492540_a-400_s2" name="BK relation_6492540_a-400_s2" kind="BREAKER" retained="false" open="false" node1="6" node2="7"/>
                <iidm:switch id="VL_virtual_relation_6492540_a_1-400_D_relation_6492540_b-400_s1" name="D relation_6492540_b-400_s1" kind="DISCONNECTOR" retained="false" open="false" node1="0" node2="8"/>
                <iidm:switch id="VL_virtual_relation_6492540_a_1-400_BK_relation_6492540_b-400_s1" name="BK relation_6492540_b-400_s1" kind="BREAKER" retained="false" open="false" node1="8" node2="9"/>
                <iidm:switch id="VL_virtual_relation_6492540_a_1-400_D_relation_6492541_a-400_s2" name="D relation_6492541_a-400_s2" kind="DISCONNECTOR" retained="false" open="false" node1="0" node2="10"/>
                <iidm:switch id="VL_virtual_relation_6492540_a_1-400_BK_relation_6492541_a-400_s2" name="BK relation_6492541_a-400_s2" kind="BREAKER" retained="false" open="false" node1="10" node2="11"/>
                <iidm:switch id="VL_virtual_relation_6492540_a_1-400_D_relation_6492541_b-400_s1" name="D relation_6492541_b-400_s1" kind="DISCONNECTOR" retained="false" open="false" node1="0" node2="12"/>
                <iidm:switch id="VL_virtual_relation_6492540_a_1-400_BK_relation_6492541_b-400_s1" name="BK relation_6492541_b-400_s1" kind="BREAKER" retained="false" open="false" node1="12" node2="13"/>
                <iidm:switch id="VL_virtual_relation_6492540_a_1-400_D_way_484322166-400_s2" name="D way_484322166-400_s2" kind="DISCONNECTOR" retained="false" open="false" node1="0" node2="14"/>
                <iidm:switch id="VL_virtual_relation_6492540_a_1-400_BK_way_484322166-400_s2" name="BK way_484322166-400_s2" kind="BREAKER" retained="false" open="false" node1="14" node2="15"/>
            </iidm:nodeBreakerTopology>
            <iidm:generator id="G_virtual_relation_6492540_a_1-400" energySource="OTHER" minP="0.0" maxP="671.0526315789473" voltageRegulatorOn="true" targetP="447.36842105263156" targetV="400.0" targetQ="0.0" node="3">
                <iidm:minMaxReactiveLimits minQ="-1.7976931348623157E308" maxQ="1.7976931348623157E308"/>
            </iidm:generator>
            <iidm:load id="L_virtual_relation_6492540_a_1-400" loadType="UNDEFINED" p0="295.2755905511811" q0="29.52755905511811" node="5"/>
        </iidm:voltageLevel>
    </iidm:substation>
    <iidm:substation id="SS_virtual_relation_6492540_b_1-400" name="BRAUDL72CUBNE" country="FR">
        <iidm:voltageLevel id="VL_virtual_relation_6492540_b_1-400" name="BRAUDL72CUBNE 400kV" nominalV="400.0" lowVoltageLimit="360.0" highVoltageLimit="440.00000000000006" topologyKind="NODE_BREAKER">
            <iidm:nodeBreakerTopology>
                <iidm:busbarSection id="VL_virtual_relation_6492540_b_1-400_BBS1" name="BRAUDL72CUBNE JdB1" node="0"/>
                <iidm:switch id="VL_virtual_relation_6492540_b_1-400_D_G_virtual_relation_6492540_b_1-400" name="D G_virtual_relation_649254" kind="DISCONNECTOR" retained="false" open="false" node1="0" node2="2"/>
                <iidm:switch id="VL_virtual_relation_6492540_b_1-400_BK_G_virtual_relation_6492540_b_1-400" name="BK G_virtual_relation_64925" kind="BREAKER" retained="false" open="false" node1="2" node2="3"/>
                <iidm:switch id="VL_virtual_relation_6492540_b_1-400_D_L_virtual_relation_6492540_b_1-400" name="D L_virtual_relation_649254" kind="DISCONNECTOR" retained="false" open="false" node1="0" node2="4"/>
                <iidm:switch id="VL_virtual_relation_6492540_b_1-400_BK_L_virtual_relation_6492540_b_1-400" name="BK L_virtual_relation_64925" kind="BREAKER" retained="false" open="false" node1="4" node2="5"/>
                <iidm:switch id="VL_virtual_relation_6492540_b_1-400_D_relation_6492540_b-400_s2" name="D relation_6492540_b-400_s2" kind="DISCONNECTOR" retained="false" open="false" node1="0" node2="6"/>
                <iidm:switch id="VL_virtual_relation_6492540_b_1-400_BK_relation_6492540_b-400_s2" name="BK relation_6492540_b-400_s2" kind="BREAKER" retained="false" open="false" node1="6" node2="7"/>
                <iidm:switch id="VL_virtual_relation_6492540_b_1-400_D_relation_6492540_c-400_s1" name="D relation_6492540_c-400_s1" kind="DISCONNECTOR" retained="false" open="false" node1="0" node2="8"/>
                <iidm:switch id="VL_virtual_relation_6492540_b_1-400_BK_relation_6492540_c-400_s1" name="BK relation_6492540_c-400_s1" kind="BREAKER" retained="false" open="false" node1="8" node2="9"/>
                <iidm:switch id="VL_virtual_relation_6492540_b_1-400_D_relation_6492541_b-400_s2" name="D relation_6492541_b-400_s2" kind="DISCONNECTOR" retained="false" open="false" node1="0" node2="10"/>
                <iidm:switch id="VL_virtual_relation_6492540_b_1-400_BK_relation_6492541_b-400_s2" name="BK relation_6492541_b-400_s2" kind="BREAKER" retained="false" open="false" node1="10" node2="11"/>
                <iidm:switch id="VL_virtual_relation_6492540_b_1-400_D_relation_6492541_c-400_s1" name="D relation_6492541_c-400_s1" kind="DISCONNECTOR" retained="false" open="false" node1="0" node2="12"/>
                <iidm:switch id="VL_virtual_relation_6492540_b_1-400_BK_relation_6492541_c-400_s1" name="BK relation_6492541_c-400_s1" kind="BREAKER" retained="false" open="false" node1="12" node2="13"/>
                <iidm:switch id="VL_virtual_relation_6492540_b_1-400_D_way_484322166-400_s1" name="D way_484322166-400_s1" kind="DISCONNECTOR" retained="false" open="false" node1="0" node2="14"/>
                <iidm:switch id="VL_virtual_relation_6492540_b_1-400_BK_way_484322166-400_s1" name="BK way_484322166-400_s1" kind="BREAKER" retained="false" open="false" node1="14" node2="15"/>
            </iidm:nodeBreakerTopology>
            <iidm:generator id="G_virtual_relation_6492540_b_1-400" energySource="OTHER" minP="0.0" maxP="671.0526315789473" voltageRegulatorOn="true" targetP="447.36842105263156" targetV="400.0" targetQ="0.0" node="3">
                <iidm:minMaxReactiveLimits minQ="-1.7976931348623157E308" maxQ="1.7976931348623157E308"/>
            </iidm:generator>
            <iidm:load id="L_virtual_relation_6492540_b_1-400" loadType="UNDEFINED" p0="442.9133858267717" q0="44.29133858267717" node="5"/>
        </iidm:voltageLevel>
    </iidm:substation>
    <iidm:substation id="SS_virtual_way_1346026649_1-400" name="virtual_way_1346026649_1-400" country="FR">
        <iidm:voltageLevel id="VL_virtual_way_1346026649_1-400" name="virtual_way_1346026649_1-400 400kV" nominalV="400.0" lowVoltageLimit="360.0" highVoltageLimit="440.00000000000006" topologyKind="NODE_BREAKER">
            <iidm:nodeBreakerTopology>
                <iidm:busbarSection id="VL_virtual_way_1346026649_1-400_BBS1" name="virtual_way_1346026649_1-400 JdB1" node="0"/>
                <iidm:switch id="VL_virtual_way_1346026649_1-400_D_G_virtual_way_1346026649_1-400" name="D G_virtual_way_1346026649_" kind="DISCONNECTOR" retained="false" open="false" node1="0" node2="2"/>
                <iidm:switch id="VL_virtual_way_1346026649_1-400_BK_G_virtual_way_1346026649_1-400" name="BK G_virtual_way_1346026649" kind="BREAKER" retained="false" open="false" node1="2" node2="3"/>
                <iidm:switch id="VL_virtual_way_1346026649_1-400_D_L_virtual_way_1346026649_1-400" name="D L_virtual_way_1346026649_" kind="DISCONNECTOR" retained="false" open="false" node1="0" node2="4"/>
                <iidm:switch id="VL_virtual_way_1346026649_1-400_BK_L_virtual_way_1346026649_1-400" name="BK L_virtual_way_1346026649" kind="BREAKER" retained="false" open="false" node1="4" node2="5"/>
                <iidm:switch id="VL_virtual_way_1346026649_1-400_D_way_1346026649-400_s2" name="D way_1346026649-400_s2" kind="DISCONNECTOR" retained="false" open="false" node1="0" node2="6"/>
                <iidm:switch id="VL_virtual_way_1346026649_1-400_BK_way_1346026649-400_s2" name="BK way_1346026649-400_s2" kind="BREAKER" retained="false" open="false" node1="6" node2="7"/>
            </iidm:nodeBreakerTopology>
            <iidm:generator id="G_virtual_way_1346026649_1-400" energySource="OTHER" minP="0.0" maxP="671.0526315789473" voltageRegulatorOn="true" targetP="447.36842105263156" targetV="400.0" targetQ="0.0" node="3">
                <iidm:minMaxReactiveLimits minQ="-1.7976931348623157E308" maxQ="1.7976931348623157E308"/>
            </iidm:generator>
            <iidm:load id="L_virtual_way_1346026649_1-400" loadType="UNDEFINED" p0="147.63779527559055" q0="14.763779527559056" node="5"/>
        </iidm:voltageLevel>
    </iidm:substation>
    <iidm:substation id="SS_virtual_way_1347440288_1-400" name="BOCTOL71ZBOCT" country="FR">
        <iidm:voltageLevel id="VL_virtual_way_1347440288_1-400" name="BOCTOL71ZBOCT 400kV" nominalV="400.0" lowVoltageLimit="360.0" highVoltageLimit="440.00000000000006" topologyKind="NODE_BREAKER">
            <iidm:nodeBreakerTopology>
                <iidm:busbarSection id="VL_virtual_way_1347440288_1-400_BBS1" name="BOCTOL71ZBOCT JdB1" node="0"/>
                <iidm:switch id="VL_virtual_way_1347440288_1-400_D_G_virtual_way_1347440288_1-400" name="D G_virtual_way_1347440288_" kind="DISCONNECTOR" retained="false" open="false" node1="0" node2="2"/>
                <iidm:switch id="VL_virtual_way_1347440288_1-400_BK_G_virtual_way_1347440288_1-400" name="BK G_virtual_way_1347440288" kind="BREAKER" retained="false" open="false" node1="2" node2="3"/>
                <iidm:switch id="VL_virtual_way_1347440288_1-400_D_L_virtual_way_1347440288_1-400" name="D L_virtual_way_1347440288_" kind="DISCONNECTOR" retained="false" open="false" node1="0" node2="4"/>
                <iidm:switch id="VL_virtual_way_1347440288_1-400_BK_L_virtual_way_1347440288_1-400" name="BK L_virtual_way_1347440288" kind="BREAKER" retained="false" open="false" node1="4" node2="5"/>
                <iidm:switch id="VL_virtual_way_1347440288_1-400_D_merged_way_118387074-400_3_s2" name="D merged_way_118387074-40_s2" kind="DISCONNECTOR" retained="false" open="false" node1="0" node2="6"/>
                <iidm:switch id="VL_virtual_way_1347440288_1-400_BK_merged_way_118387074-400_3_s2" name="BK merged_way_118387074-4_s2" kind="BREAKER" retained="false" open="false" node1="6" node2="7"/>
            </iidm:nodeBreakerTopology>
            <iidm:generator id="G_virtual_way_1347440288_1-400" energySource="OTHER" minP="0.0" maxP="671.0526315789473" voltageRegulatorOn="true" targetP="447.36842105263156" targetV="400.0" targetQ="0.0" node="3">
                <iidm:minMaxReactiveLimits minQ="-1.7976931348623157E308" maxQ="1.7976931348623157E308"/>
            </iidm:generator>
            <iidm:load id="L_virtual_way_1347440288_1-400" loadType="UNDEFINED" p0="147.63779527559055" q0="14.763779527559056" node="5"/>
        </iidm:voltageLevel>
    </iidm:substation>
    <iidm:substation id="SS_virtual_way_1430729489_1-400" name="virtual_way_1430729489_1-400" country="FR">
        <iidm:voltageLevel id="VL_virtual_way_1430729489_1-400" name="virtual_way_1430729489_1-400 400kV" nominalV="400.0" lowVoltageLimit="360.0" highVoltageLimit="440.00000000000006" topologyKind="NODE_BREAKER">
            <iidm:nodeBreakerTopology>
                <iidm:busbarSection id="VL_virtual_way_1430729489_1-400_BBS1" name="virtual_way_1430729489_1-400 JdB1" node="0"/>
                <iidm:switch id="VL_virtual_way_1430729489_1-400_D_G_virtual_way_1430729489_1-400" name="D G_virtual_way_1430729489_" kind="DISCONNECTOR" retained="false" open="false" node1="0" node2="2"/>
                <iidm:switch id="VL_virtual_way_1430729489_1-400_BK_G_virtual_way_1430729489_1-400" name="BK G_virtual_way_1430729489" kind="BREAKER" retained="false" open="false" node1="2" node2="3"/>
                <iidm:switch id="VL_virtual_way_1430729489_1-400_D_L_virtual_way_1430729489_1-400" name="D L_virtual_way_1430729489_" kind="DISCONNECTOR" retained="false" open="false" node1="0" node2="4"/>
                <iidm:switch id="VL_virtual_way_1430729489_1-400_BK_L_virtual_way_1430729489_1-400" name="BK L_virtual_way_1430729489" kind="BREAKER" retained="false" open="false" node1="4" node2="5"/>
                <iidm:switch id="VL_virtual_way_1430729489_1-400_D_way_1430729490-400_s1" name="D way_1430729490-400_s1" kind="DISCONNECTOR" retained="false" open="false" node1="0" node2="6"/>
                <iidm:switch id="VL_virtual_way_1430729489_1-400_BK_way_1430729490-400_s1" name="BK way_1430729490-400_s1" kind="BREAKER" retained="false" open="false" node1="6" node2="7"/>
                <iidm:switch id="VL_virtual_way_1430729489_1-400_D_way_53826238-400_s2" name="D way_53826238-400_s2" kind="DISCONNECTOR" retained="false" open="false" node1="0" node2="8"/>
                <iidm:switch id="VL_virtual_way_1430729489_1-400_BK_way_53826238-400_s2" name="BK way_53826238-400_s2" kind="BREAKER" retained="false" open="false" node1="8" node2="9"/>
            </iidm:nodeBreakerTopology>
            <iidm:generator id="G_virtual_way_1430729489_1-400" energySource="OTHER" minP="0.0" maxP="671.0526315789473" voltageRegulatorOn="true" targetP="447.36842105263156" targetV="400.0" targetQ="0.0" node="3">
                <iidm:minMaxReactiveLimits minQ="-1.7976931348623157E308" maxQ="1.7976931348623157E308"/>
            </iidm:generator>
            <iidm:load id="L_virtual_way_1430729489_1-400" loadType="UNDEFINED" p0="295.2755905511811" q0="29.52755905511811" node="5"/>
        </iidm:voltageLevel>
    </iidm:substation>
    <iidm:substation id="SS_virtual_way_175128983_0-400" name="virtual_way_175128983_0-400" country="FR">
        <iidm:voltageLevel id="VL_virtual_way_175128983_0-400" name="virtual_way_175128983_0-400 400kV" nominalV="400.0" lowVoltageLimit="360.0" highVoltageLimit="440.00000000000006" topologyKind="NODE_BREAKER">
            <iidm:nodeBreakerTopology>
                <iidm:busbarSection id="VL_virtual_way_175128983_0-400_BBS1" name="virtual_way_175128983_0-400 JdB1" node="0"/>
                <iidm:switch id="VL_virtual_way_175128983_0-400_D_G_virtual_way_175128983_0-400" name="D G_virtual_way_175128983_0" kind="DISCONNECTOR" retained="false" open="false" node1="0" node2="2"/>
                <iidm:switch id="VL_virtual_way_175128983_0-400_BK_G_virtual_way_175128983_0-400" name="BK G_virtual_way_175128983_" kind="BREAKER" retained="false" open="false" node1="2" node2="3"/>
                <iidm:switch id="VL_virtual_way_175128983_0-400_D_L_virtual_way_175128983_0-400" name="D L_virtual_way_175128983_0" kind="DISCONNECTOR" retained="false" open="false" node1="0" node2="4"/>
                <iidm:switch id="VL_virtual_way_175128983_0-400_BK_L_virtual_way_175128983_0-400" name="BK L_virtual_way_175128983_" kind="BREAKER" retained="false" open="false" node1="4" node2="5"/>
                <iidm:switch id="VL_virtual_way_175128983_0-400_D_way_175128983-400_s1" name="D way_175128983-400_s1" kind="DISCONNECTOR" retained="false" open="false" node1="0" node2="6"/>
                <iidm:switch id="VL_virtual_way_175128983_0-400_BK_way_175128983-400_s1" name="BK way_175128983-400_s1" kind="BREAKER" retained="false" open="false" node1="6" node2="7"/>
            </iidm:nodeBreakerTopology>
            <iidm:generator id="G_virtual_way_175128983_0-400" energySource="OTHER" minP="0.0" maxP="671.0526315789473" voltageRegulatorOn="true" targetP="447.36842105263156" targetV="400.0" targetQ="0.0" node="3">
                <iidm:minMaxReactiveLimits minQ="-1.7976931348623157E308" maxQ="1.7976931348623157E308"/>
            </iidm:generator>
            <iidm:load id="L_virtual_way_175128983_0-400" loadType="UNDEFINED" p0="147.63779527559055" q0="14.763779527559056" node="5"/>
        </iidm:voltageLevel>
    </iidm:substation>
    <iidm:substation id="SS_virtual_way_23286260_1-400" name="virtual_way_23286260_1-400" country="FR">
        <iidm:voltageLevel id="VL_virtual_way_23286260_1-400" name="virtual_way_23286260_1-400 400kV" nominalV="400.0" lowVoltageLimit="360.0" highVoltageLimit="440.00000000000006" topologyKind="NODE_BREAKER">
            <iidm:nodeBreakerTopology>
                <iidm:busbarSection id="VL_virtual_way_23286260_1-400_BBS1" name="virtual_way_23286260_1-400 JdB1" node="0"/>
                <iidm:switch id="VL_virtual_way_23286260_1-400_D_G_virtual_way_23286260_1-400" name="D G_virtual_way_23286260_1-" kind="DISCONNECTOR" retained="false" open="false" node1="0" node2="2"/>
                <iidm:switch id="VL_virtual_way_23286260_1-400_BK_G_virtual_way_23286260_1-400" name="BK G_virtual_way_23286260_1" kind="BREAKER" retained="false" open="false" node1="2" node2="3"/>
                <iidm:switch id="VL_virtual_way_23286260_1-400_D_L_virtual_way_23286260_1-400" name="D L_virtual_way_23286260_1-" kind="DISCONNECTOR" retained="false" open="false" node1="0" node2="4"/>
                <iidm:switch id="VL_virtual_way_23286260_1-400_BK_L_virtual_way_23286260_1-400" name="BK L_virtual_way_23286260_1" kind="BREAKER" retained="false" open="false" node1="4" node2="5"/>
                <iidm:switch id="VL_virtual_way_23286260_1-400_D_way_23286260-400_s2" name="D way_23286260-400_s2" kind="DISCONNECTOR" retained="false" open="false" node1="0" node2="6"/>
                <iidm:switch id="VL_virtual_way_23286260_1-400_BK_way_23286260-400_s2" name="BK way_23286260-400_s2" kind="BREAKER" retained="false" open="false" node1="6" node2="7"/>
                <iidm:switch id="VL_virtual_way_23286260_1-400_D_way_86344192-400_s2" name="D way_86344192-400_s2" kind="DISCONNECTOR" retained="false" open="false" node1="0" node2="8"/>
                <iidm:switch id="VL_virtual_way_23286260_1-400_BK_way_86344192-400_s2" name="BK way_86344192-400_s2" kind="BREAKER" retained="false" open="false" node1="8" node2="9"/>
                <iidm:switch id="VL_virtual_way_23286260_1-400_D_way_86345555-400_s1" name="D way_86345555-400_s1" kind="DISCONNECTOR" retained="false" open="false" node1="0" node2="10"/>
                <iidm:switch id="VL_virtual_way_23286260_1-400_BK_way_86345555-400_s1" name="BK way_86345555-400_s1" kind="BREAKER" retained="false" open="false" node1="10" node2="11"/>
            </iidm:nodeBreakerTopology>
            <iidm:generator id="G_virtual_way_23286260_1-400" energySource="OTHER" minP="0.0" maxP="671.0526315789473" voltageRegulatorOn="true" targetP="447.36842105263156" targetV="400.0" targetQ="0.0" node="3">
                <iidm:minMaxReactiveLimits minQ="-1.7976931348623157E308" maxQ="1.7976931348623157E308"/>
            </iidm:generator>
            <iidm:load id="L_virtual_way_23286260_1-400" loadType="UNDEFINED" p0="442.9133858267717" q0="44.29133858267717" node="5"/>
        </iidm:voltageLevel>
    </iidm:substation>
    <iidm:substation id="SS_virtual_way_328017422_1-400" name="Liaison 400 kV n°2 Plessis-Gassot - Terrier" country="FR">
        <iidm:voltageLevel id="VL_virtual_way_328017422_1-400" name="Liaison 400 kV n°2 Plessis-Gassot - Terrier 400kV" nominalV="400.0" lowVoltageLimit="360.0" highVoltageLimit="440.00000000000006" topologyKind="NODE_BREAKER">
            <iidm:nodeBreakerTopology>
                <iidm:busbarSection id="VL_virtual_way_328017422_1-400_BBS1" name="Liaison 400 kV n°2 Plessis-Gassot - Terrier JdB1" node="0"/>
                <iidm:switch id="VL_virtual_way_328017422_1-400_D_G_virtual_way_328017422_1-400" name="D G_virtual_way_328017422_1" kind="DISCONNECTOR" retained="false" open="false" node1="0" node2="2"/>
                <iidm:switch id="VL_virtual_way_328017422_1-400_BK_G_virtual_way_328017422_1-400" name="BK G_virtual_way_328017422_" kind="BREAKER" retained="false" open="false" node1="2" node2="3"/>
                <iidm:switch id="VL_virtual_way_328017422_1-400_D_L_virtual_way_328017422_1-400" name="D L_virtual_way_328017422_1" kind="DISCONNECTOR" retained="false" open="false" node1="0" node2="4"/>
                <iidm:switch id="VL_virtual_way_328017422_1-400_BK_L_virtual_way_328017422_1-400" name="BK L_virtual_way_328017422_" kind="BREAKER" retained="false" open="false" node1="4" node2="5"/>
                <iidm:switch id="VL_virtual_way_328017422_1-400_D_merged_way_328017422-400_1_s2" name="D merged_way_328017422-40_s2" kind="DISCONNECTOR" retained="false" open="false" node1="0" node2="6"/>
                <iidm:switch id="VL_virtual_way_328017422_1-400_BK_merged_way_328017422-400_1_s2" name="BK merged_way_328017422-4_s2" kind="BREAKER" retained="false" open="false" node1="6" node2="7"/>
                <iidm:switch id="VL_virtual_way_328017422_1-400_D_merged_way_328017432_b-400_2_s2" name="D merged_way_328017432_b-_s2" kind="DISCONNECTOR" retained="false" open="false" node1="0" node2="8"/>
                <iidm:switch id="VL_virtual_way_328017422_1-400_BK_merged_way_328017432_b-400_2_s2" name="BK merged_way_328017432_b_s2" kind="BREAKER" retained="false" open="false" node1="8" node2="9"/>
                <iidm:switch id="VL_virtual_way_328017422_1-400_D_way_148245069-400_s2" name="D way_148245069-400_s2" kind="DISCONNECTOR" retained="false" open="false" node1="0" node2="10"/>
                <iidm:switch id="VL_virtual_way_328017422_1-400_BK_way_148245069-400_s2" name="BK way_148245069-400_s2" kind="BREAKER" retained="false" open="false" node1="10" node2="11"/>
                <iidm:switch id="VL_virtual_way_328017422_1-400_D_way_170028642-400_s1" name="D way_170028642-400_s1" kind="DISCONNECTOR" retained="false" open="false" node1="0" node2="12"/>
                <iidm:switch id="VL_virtual_way_328017422_1-400_BK_way_170028642-400_s1" name="BK way_170028642-400_s1" kind="BREAKER" retained="false" open="false" node1="12" node2="13"/>
            </iidm:nodeBreakerTopology>
            <iidm:generator id="G_virtual_way_328017422_1-400" energySource="OTHER" minP="0.0" maxP="671.0526315789473" voltageRegulatorOn="true" targetP="447.36842105263156" targetV="400.0" targetQ="0.0" node="3">
                <iidm:minMaxReactiveLimits minQ="-1.7976931348623157E308" maxQ="1.7976931348623157E308"/>
            </iidm:generator>
            <iidm:load id="L_virtual_way_328017422_1-400" loadType="UNDEFINED" p0="442.9133858267717" q0="44.29133858267717" node="5"/>
        </iidm:voltageLevel>
    </iidm:substation>
    <iidm:substation id="SS_virtual_way_380651625_1-400" name="Liaison 400 kV n°1 Marlenheim - Vigy" country="FR">
        <iidm:voltageLevel id="VL_virtual_way_380651625_1-400" name="Liaison 400 kV n°1 Marlenheim - Vigy 400kV" nominalV="400.0" lowVoltageLimit="360.0" highVoltageLimit="440.00000000000006" topologyKind="NODE_BREAKER">
            <iidm:nodeBreakerTopology>
                <iidm:busbarSection id="VL_virtual_way_380651625_1-400_BBS1" name="Liaison 400 kV n°1 Marlenheim - Vigy JdB1" node="0"/>
                <iidm:switch id="VL_virtual_way_380651625_1-400_D_G_virtual_way_380651625_1-400" name="D G_virtual_way_380651625_1" kind="DISCONNECTOR" retained="false" open="false" node1="0" node2="2"/>
                <iidm:switch id="VL_virtual_way_380651625_1-400_BK_G_virtual_way_380651625_1-400" name="BK G_virtual_way_380651625_" kind="BREAKER" retained="false" open="false" node1="2" node2="3"/>
                <iidm:switch id="VL_virtual_way_380651625_1-400_D_L_virtual_way_380651625_1-400" name="D L_virtual_way_380651625_1" kind="DISCONNECTOR" retained="false" open="false" node1="0" node2="4"/>
                <iidm:switch id="VL_virtual_way_380651625_1-400_BK_L_virtual_way_380651625_1-400" name="BK L_virtual_way_380651625_" kind="BREAKER" retained="false" open="false" node1="4" node2="5"/>
                <iidm:switch id="VL_virtual_way_380651625_1-400_D_merged_way_130110647-400_3_s2" name="D merged_way_130110647-40_s2" kind="DISCONNECTOR" retained="false" open="false" node1="0" node2="6"/>
                <iidm:switch id="VL_virtual_way_380651625_1-400_BK_merged_way_130110647-400_3_s2" name="BK merged_way_130110647-4_s2" kind="BREAKER" retained="false" open="false" node1="6" node2="7"/>
            </iidm:nodeBreakerTopology>
            <iidm:generator id="G_virtual_way_380651625_1-400" energySource="OTHER" minP="0.0" maxP="671.0526315789473" voltageRegulatorOn="true" targetP="447.36842105263156" targetV="400.0" targetQ="0.0" node="3">
                <iidm:minMaxReactiveLimits minQ="-1.7976931348623157E308" maxQ="1.7976931348623157E308"/>
            </iidm:generator>
            <iidm:load id="L_virtual_way_380651625_1-400" loadType="UNDEFINED" p0="147.63779527559055" q0="14.763779527559056" node="5"/>
        </iidm:voltageLevel>
    </iidm:substation>
    <iidm:substation id="SS_virtual_way_41453026_1-400" name="Liaison 400 kV n°2 Le Chesnoy - Tabarderie" country="FR">
        <iidm:voltageLevel id="VL_virtual_way_41453026_1-400" name="Liaison 400 kV n°2 Le Chesnoy - Tabarderie 400kV" nominalV="400.0" lowVoltageLimit="360.0" highVoltageLimit="440.00000000000006" topologyKind="NODE_BREAKER">
            <iidm:nodeBreakerTopology>
                <iidm:busbarSection id="VL_virtual_way_41453026_1-400_BBS1" name="Liaison 400 kV n°2 Le Chesnoy - Tabarderie JdB1" node="0"/>
                <iidm:switch id="VL_virtual_way_41453026_1-400_D_G_virtual_way_41453026_1-400" name="D G_virtual_way_41453026_1-" kind="DISCONNECTOR" retained="false" open="false" node1="0" node2="2"/>
                <iidm:switch id="VL_virtual_way_41453026_1-400_BK_G_virtual_way_41453026_1-400" name="BK G_virtual_way_41453026_1" kind="BREAKER" retained="false" open="false" node1="2" node2="3"/>
                <iidm:switch id="VL_virtual_way_41453026_1-400_D_L_virtual_way_41453026_1-400" name="D L_virtual_way_41453026_1-" kind="DISCONNECTOR" retained="false" open="false" node1="0" node2="4"/>
                <iidm:switch id="VL_virtual_way_41453026_1-400_BK_L_virtual_way_41453026_1-400" name="BK L_virtual_way_41453026_1" kind="BREAKER" retained="false" open="false" node1="4" node2="5"/>
                <iidm:switch id="VL_virtual_way_41453026_1-400_D_way_203621818-400_s1" name="D way_203621818-400_s1" kind="DISCONNECTOR" retained="false" open="false" node1="0" node2="6"/>
                <iidm:switch id="VL_virtual_way_41453026_1-400_BK_way_203621818-400_s1" name="BK way_203621818-400_s1" kind="BREAKER" retained="false" open="false" node1="6" node2="7"/>
                <iidm:switch id="VL_virtual_way_41453026_1-400_D_way_41453026-400_s2" name="D way_41453026-400_s2" kind="DISCONNECTOR" retained="false" open="false" node1="0" node2="8"/>
                <iidm:switch id="VL_virtual_way_41453026_1-400_BK_way_41453026-400_s2" name="BK way_41453026-400_s2" kind="BREAKER" retained="false" open="false" node1="8" node2="9"/>
                <iidm:switch id="VL_virtual_way_41453026_1-400_D_way_86344182-400_s2" name="D way_86344182-400_s2" kind="DISCONNECTOR" retained="false" open="false" node1="0" node2="10"/>
                <iidm:switch id="VL_virtual_way_41453026_1-400_BK_way_86344182-400_s2" name="BK way_86344182-400_s2" kind="BREAKER" retained="false" open="false" node1="10" node2="11"/>
            </iidm:nodeBreakerTopology>
            <iidm:generator id="G_virtual_way_41453026_1-400" energySource="OTHER" minP="0.0" maxP="671.0526315789473" voltageRegulatorOn="true" targetP="447.36842105263156" targetV="400.0" targetQ="0.0" node="3">
                <iidm:minMaxReactiveLimits minQ="-1.7976931348623157E308" maxQ="1.7976931348623157E308"/>
            </iidm:generator>
            <iidm:load id="L_virtual_way_41453026_1-400" loadType="UNDEFINED" p0="295.2755905511811" q0="29.52755905511811" node="5"/>
        </iidm:voltageLevel>
    </iidm:substation>
    <iidm:substation id="SS_virtual_way_85226749_1-400" name="virtual_way_85226749_1-400" country="FR">
        <iidm:voltageLevel id="VL_virtual_way_85226749_1-400" name="virtual_way_85226749_1-400 400kV" nominalV="400.0" lowVoltageLimit="360.0" highVoltageLimit="440.00000000000006" topologyKind="NODE_BREAKER">
            <iidm:nodeBreakerTopology>
                <iidm:busbarSection id="VL_virtual_way_85226749_1-400_BBS1" name="virtual_way_85226749_1-400 JdB1" node="0"/>
                <iidm:switch id="VL_virtual_way_85226749_1-400_D_G_virtual_way_85226749_1-400" name="D G_virtual_way_85226749_1-" kind="DISCONNECTOR" retained="false" open="false" node1="0" node2="2"/>
                <iidm:switch id="VL_virtual_way_85226749_1-400_BK_G_virtual_way_85226749_1-400" name="BK G_virtual_way_85226749_1" kind="BREAKER" retained="false" open="false" node1="2" node2="3"/>
                <iidm:switch id="VL_virtual_way_85226749_1-400_D_L_virtual_way_85226749_1-400" name="D L_virtual_way_85226749_1-" kind="DISCONNECTOR" retained="false" open="false" node1="0" node2="4"/>
                <iidm:switch id="VL_virtual_way_85226749_1-400_BK_L_virtual_way_85226749_1-400" name="BK L_virtual_way_85226749_1" kind="BREAKER" retained="false" open="false" node1="4" node2="5"/>
                <iidm:switch id="VL_virtual_way_85226749_1-400_D_way_182026368-400_s1" name="D way_182026368-400_s1" kind="DISCONNECTOR" retained="false" open="false" node1="0" node2="6"/>
                <iidm:switch id="VL_virtual_way_85226749_1-400_BK_way_182026368-400_s1" name="BK way_182026368-400_s1" kind="BREAKER" retained="false" open="false" node1="6" node2="7"/>
                <iidm:switch id="VL_virtual_way_85226749_1-400_D_way_182026370-400_s1" name="D way_182026370-400_s1" kind="DISCONNECTOR" retained="false" open="false" node1="0" node2="8"/>
                <iidm:switch id="VL_virtual_way_85226749_1-400_BK_way_182026370-400_s1" name="BK way_182026370-400_s1" kind="BREAKER" retained="false" open="false" node1="8" node2="9"/>
                <iidm:switch id="VL_virtual_way_85226749_1-400_D_way_182026371-400_s1" name="D way_182026371-400_s1" kind="DISCONNECTOR" retained="false" open="false" node1="0" node2="10"/>
                <iidm:switch id="VL_virtual_way_85226749_1-400_BK_way_182026371-400_s1" name="BK way_182026371-400_s1" kind="BREAKER" retained="false" open="false" node1="10" node2="11"/>
                <iidm:switch id="VL_virtual_way_85226749_1-400_D_way_182026375_a-400_s1" name="D way_182026375_a-400_s1" kind="DISCONNECTOR" retained="false" open="false" node1="0" node2="12"/>
                <iidm:switch id="VL_virtual_way_85226749_1-400_BK_way_182026375_a-400_s1" name="BK way_182026375_a-400_s1" kind="BREAKER" retained="false" open="false" node1="12" node2="13"/>
                <iidm:switch id="VL_virtual_way_85226749_1-400_D_way_210665254-400_s2" name="D way_210665254-400_s2" kind="DISCONNECTOR" retained="false" open="false" node1="0" node2="14"/>
                <iidm:switch id="VL_virtual_way_85226749_1-400_BK_way_210665254-400_s2" name="BK way_210665254-400_s2" kind="BREAKER" retained="false" open="false" node1="14" node2="15"/>
                <iidm:switch id="VL_virtual_way_85226749_1-400_D_way_85226749-400_s2" name="D way_85226749-400_s2" kind="DISCONNECTOR" retained="false" open="false" node1="0" node2="16"/>
                <iidm:switch id="VL_virtual_way_85226749_1-400_BK_way_85226749-400_s2" name="BK way_85226749-400_s2" kind="BREAKER" retained="false" open="false" node1="16" node2="17"/>
            </iidm:nodeBreakerTopology>
            <iidm:generator id="G_virtual_way_85226749_1-400" energySource="OTHER" minP="0.0" maxP="671.0526315789473" voltageRegulatorOn="true" targetP="447.36842105263156" targetV="400.0" targetQ="0.0" node="3">
                <iidm:minMaxReactiveLimits minQ="-1.7976931348623157E308" maxQ="1.7976931348623157E308"/>
            </iidm:generator>
            <iidm:load id="L_virtual_way_85226749_1-400" loadType="UNDEFINED" p0="442.9133858267717" q0="44.29133858267717" node="5"/>
        </iidm:voltageLevel>
    </iidm:substation>
    <iidm:substation id="SS_virtual_way_88910320_0-400" name="Liaison 400 kV n°1 Cergy - Mezerolles" country="FR">
        <iidm:voltageLevel id="VL_virtual_way_88910320_0-400" name="Liaison 400 kV n°1 Cergy - Mezerolles 400kV" nominalV="400.0" lowVoltageLimit="360.0" highVoltageLimit="440.00000000000006" topologyKind="NODE_BREAKER">
            <iidm:nodeBreakerTopology>
                <iidm:busbarSection id="VL_virtual_way_88910320_0-400_BBS1" name="Liaison 400 kV n°1 Cergy - Mezerolles JdB1" node="0"/>
                <iidm:switch id="VL_virtual_way_88910320_0-400_D_G_virtual_way_88910320_0-400" name="D G_virtual_way_88910320_0-" kind="DISCONNECTOR" retained="false" open="false" node1="0" node2="2"/>
                <iidm:switch id="VL_virtual_way_88910320_0-400_BK_G_virtual_way_88910320_0-400" name="BK G_virtual_way_88910320_0" kind="BREAKER" retained="false" open="false" node1="2" node2="3"/>
                <iidm:switch id="VL_virtual_way_88910320_0-400_D_L_virtual_way_88910320_0-400" name="D L_virtual_way_88910320_0-" kind="DISCONNECTOR" retained="false" open="false" node1="0" node2="4"/>
                <iidm:switch id="VL_virtual_way_88910320_0-400_BK_L_virtual_way_88910320_0-400" name="BK L_virtual_way_88910320_0" kind="BREAKER" retained="false" open="false" node1="4" node2="5"/>
                <iidm:switch id="VL_virtual_way_88910320_0-400_D_way_170045516-400_s1" name="D way_170045516-400_s1" kind="DISCONNECTOR" retained="false" open="false" node1="0" node2="6"/>
                <iidm:switch id="VL_virtual_way_88910320_0-400_BK_way_170045516-400_s1" name="BK way_170045516-400_s1" kind="BREAKER" retained="false" open="false" node1="6" node2="7"/>
                <iidm:switch id="VL_virtual_way_88910320_0-400_D_way_88910320-400_s1" name="D way_88910320-400_s1" kind="DISCONNECTOR" retained="false" open="false" node1="0" node2="8"/>
                <iidm:switch id="VL_virtual_way_88910320_0-400_BK_way_88910320-400_s1" name="BK way_88910320-400_s1" kind="BREAKER" retained="false" open="false" node1="8" node2="9"/>
                <iidm:switch id="VL_virtual_way_88910320_0-400_D_way_89034160-400_s2" name="D way_89034160-400_s2" kind="DISCONNECTOR" retained="false" open="false" node1="0" node2="10"/>
                <iidm:switch id="VL_virtual_way_88910320_0-400_BK_way_89034160-400_s2" name="BK way_89034160-400_s2" kind="BREAKER" retained="false" open="false" node1="10" node2="11"/>
            </iidm:nodeBreakerTopology>
            <iidm:generator id="G_virtual_way_88910320_0-400" energySource="OTHER" minP="0.0" maxP="671.0526315789473" voltageRegulatorOn="true" targetP="447.36842105263156" targetV="400.0" targetQ="0.0" node="3">
                <iidm:minMaxReactiveLimits minQ="-1.7976931348623157E308" maxQ="1.7976931348623157E308"/>
            </iidm:generator>
            <iidm:load id="L_virtual_way_88910320_0-400" loadType="UNDEFINED" p0="295.2755905511811" q0="29.52755905511811" node="5"/>
        </iidm:voltageLevel>
    </iidm:substation>
    <iidm:substation id="SS_virtual_way_94524735_0-400" name="virtual_way_94524735_0-400" country="FR">
        <iidm:voltageLevel id="VL_virtual_way_94524735_0-400" name="virtual_way_94524735_0-400 400kV" nominalV="400.0" lowVoltageLimit="360.0" highVoltageLimit="440.00000000000006" topologyKind="NODE_BREAKER">
            <iidm:nodeBreakerTopology>
                <iidm:busbarSection id="VL_virtual_way_94524735_0-400_BBS1" name="virtual_way_94524735_0-400 JdB1" node="0"/>
                <iidm:switch id="VL_virtual_way_94524735_0-400_D_G_virtual_way_94524735_0-400" name="D G_virtual_way_94524735_0-" kind="DISCONNECTOR" retained="false" open="false" node1="0" node2="2"/>
                <iidm:switch id="VL_virtual_way_94524735_0-400_BK_G_virtual_way_94524735_0-400" name="BK G_virtual_way_94524735_0" kind="BREAKER" retained="false" open="false" node1="2" node2="3"/>
                <iidm:switch id="VL_virtual_way_94524735_0-400_D_L_virtual_way_94524735_0-400" name="D L_virtual_way_94524735_0-" kind="DISCONNECTOR" retained="false" open="false" node1="0" node2="4"/>
                <iidm:switch id="VL_virtual_way_94524735_0-400_BK_L_virtual_way_94524735_0-400" name="BK L_virtual_way_94524735_0" kind="BREAKER" retained="false" open="false" node1="4" node2="5"/>
                <iidm:switch id="VL_virtual_way_94524735_0-400_D_merged_way_407317843-400_8_s2" name="D merged_way_407317843-40_s2" kind="DISCONNECTOR" retained="false" open="false" node1="0" node2="6"/>
                <iidm:switch id="VL_virtual_way_94524735_0-400_BK_merged_way_407317843-400_8_s2" name="BK merged_way_407317843-4_s2" kind="BREAKER" retained="false" open="false" node1="6" node2="7"/>
                <iidm:switch id="VL_virtual_way_94524735_0-400_D_way_118125578-400_s1" name="D way_118125578-400_s1" kind="DISCONNECTOR" retained="false" open="false" node1="0" node2="8"/>
                <iidm:switch id="VL_virtual_way_94524735_0-400_BK_way_118125578-400_s1" name="BK way_118125578-400_s1" kind="BREAKER" retained="false" open="false" node1="8" node2="9"/>
                <iidm:switch id="VL_virtual_way_94524735_0-400_D_way_122563471-400_s2" name="D way_122563471-400_s2" kind="DISCONNECTOR" retained="false" open="false" node1="0" node2="10"/>
                <iidm:switch id="VL_virtual_way_94524735_0-400_BK_way_122563471-400_s2" name="BK way_122563471-400_s2" kind="BREAKER" retained="false" open="false" node1="10" node2="11"/>
                <iidm:switch id="VL_virtual_way_94524735_0-400_D_way_132066454-400_s1" name="D way_132066454-400_s1" kind="DISCONNECTOR" retained="false" open="false" node1="0" node2="12"/>
                <iidm:switch id="VL_virtual_way_94524735_0-400_BK_way_132066454-400_s1" name="BK way_132066454-400_s1" kind="BREAKER" retained="false" open="false" node1="12" node2="13"/>
            </iidm:nodeBreakerTopology>
            <iidm:generator id="G_virtual_way_94524735_0-400" energySource="OTHER" minP="0.0" maxP="671.0526315789473" voltageRegulatorOn="true" targetP="447.36842105263156" targetV="400.0" targetQ="0.0" node="3">
                <iidm:minMaxReactiveLimits minQ="-1.7976931348623157E308" maxQ="1.7976931348623157E308"/>
            </iidm:generator>
            <iidm:load id="L_virtual_way_94524735_0-400" loadType="UNDEFINED" p0="590.5511811023622" q0="59.05511811023622" node="5"/>
        </iidm:voltageLevel>
    </iidm:substation>
    <iidm:substation id="SS_way_100087916-400" name="BOUTRE" country="FR">
        <iidm:voltageLevel id="VL_way_100087916-400" name="BOUTRE 400kV" nominalV="400.0" lowVoltageLimit="360.0" highVoltageLimit="440.00000000000006" topologyKind="NODE_BREAKER">
            <iidm:nodeBreakerTopology>
                <iidm:busbarSection id="VL_way_100087916-400_BBS1" name="BOUTRE JdB1" node="0"/>
                <iidm:switch id="VL_way_100087916-400_D_G_way_100087916-400" name="D G_way_100087916-400" kind="DISCONNECTOR" retained="false" open="false" node1="0" node2="2"/>
                <iidm:switch id="VL_way_100087916-400_BK_G_way_100087916-400" name="BK G_way_100087916-400" kind="BREAKER" retained="false" open="false" node1="2" node2="3"/>
                <iidm:switch id="VL_way_100087916-400_D_L_way_100087916-400" name="D L_way_100087916-400" kind="DISCONNECTOR" retained="false" open="false" node1="0" node2="4"/>
                <iidm:switch id="VL_way_100087916-400_BK_L_way_100087916-400" name="BK L_way_100087916-400" kind="BREAKER" retained="false" open="false" node1="4" node2="5"/>
                <iidm:switch id="VL_way_100087916-400_D_relation_5952075_c-400_s2" name="D relation_5952075_c-400_s2" kind="DISCONNECTOR" retained="false" open="false" node1="0" node2="6"/>
                <iidm:switch id="VL_way_100087916-400_BK_relation_5952075_c-400_s2" name="BK relation_5952075_c-400_s2" kind="BREAKER" retained="false" open="false" node1="6" node2="7"/>
                <iidm:switch id="VL_way_100087916-400_D_relation_7797162_d-400_s2" name="D relation_7797162_d-400_s2" kind="DISCONNECTOR" retained="false" open="false" node1="0" node2="8"/>
                <iidm:switch id="VL_way_100087916-400_BK_relation_7797162_d-400_s2" name="BK relation_7797162_d-400_s2" kind="BREAKER" retained="false" open="false" node1="8" node2="9"/>
            </iidm:nodeBreakerTopology>
            <iidm:generator id="G_way_100087916-400" energySource="OTHER" minP="0.0" maxP="671.0526315789473" voltageRegulatorOn="true" targetP="447.36842105263156" targetV="400.0" targetQ="0.0" node="3">
                <iidm:minMaxReactiveLimits minQ="-1.7976931348623157E308" maxQ="1.7976931348623157E308"/>
            </iidm:generator>
            <iidm:load id="L_way_100087916-400" loadType="UNDEFINED" p0="147.63779527559055" q0="14.763779527559056" node="5"/>
        </iidm:voltageLevel>
    </iidm:substation>
    <iidm:substation id="SS_way_1000881525-400" name="AYRES" country="FR">
        <iidm:voltageLevel id="VL_way_1000881525-400" name="AYRES 400kV" nominalV="400.0" lowVoltageLimit="360.0" highVoltageLimit="440.00000000000006" topologyKind="NODE_BREAKER">
            <iidm:nodeBreakerTopology>
                <iidm:busbarSection id="VL_way_1000881525-400_BBS1" name="AYRES JdB1" node="0"/>
                <iidm:switch id="VL_way_1000881525-400_D_G_way_1000881525-400" name="D G_way_1000881525-400" kind="DISCONNECTOR" retained="false" open="false" node1="0" node2="2"/>
                <iidm:switch id="VL_way_1000881525-400_BK_G_way_1000881525-400" name="BK G_way_1000881525-400" kind="BREAKER" retained="false" open="false" node1="2" node2="3"/>
                <iidm:switch id="VL_way_1000881525-400_D_L_way_1000881525-400" name="D L_way_1000881525-400" kind="DISCONNECTOR" retained="false" open="false" node1="0" node2="4"/>
                <iidm:switch id="VL_way_1000881525-400_BK_L_way_1000881525-400" name="BK L_way_1000881525-400" kind="BREAKER" retained="false" open="false" node1="4" node2="5"/>
                <iidm:switch id="VL_way_1000881525-400_D_relation_14353890-400_s2" name="D relation_14353890-400_s2" kind="DISCONNECTOR" retained="false" open="false" node1="0" node2="6"/>
                <iidm:switch id="VL_way_1000881525-400_BK_relation_14353890-400_s2" name="BK relation_14353890-400_s2" kind="BREAKER" retained="false" open="false" node1="6" node2="7"/>
                <iidm:switch id="VL_way_1000881525-400_D_relation_14353891-400_s2" name="D relation_14353891-400_s2" kind="DISCONNECTOR" retained="false" open="false" node1="0" node2="8"/>
                <iidm:switch id="VL_way_1000881525-400_BK_relation_14353891-400_s2" name="BK relation_14353891-400_s2" kind="BREAKER" retained="false" open="false" node1="8" node2="9"/>
            </iidm:nodeBreakerTopology>
            <iidm:generator id="G_way_1000881525-400" energySource="OTHER" minP="0.0" maxP="671.0526315789473" voltageRegulatorOn="true" targetP="447.36842105263156" targetV="400.0" targetQ="0.0" node="3">
                <iidm:minMaxReactiveLimits minQ="-1.7976931348623157E308" maxQ="1.7976931348623157E308"/>
            </iidm:generator>
            <iidm:load id="L_way_1000881525-400" loadType="UNDEFINED" p0="295.2755905511811" q0="29.52755905511811" node="5"/>
        </iidm:voltageLevel>
    </iidm:substation>
    <iidm:substation id="SS_way_100500802-400" name="CORNIER" country="FR">
        <iidm:voltageLevel id="VL_way_100500802-400" name="CORNIER 400kV" nominalV="400.0" lowVoltageLimit="360.0" highVoltageLimit="440.00000000000006" topologyKind="NODE_BREAKER">
            <iidm:nodeBreakerTopology>
                <iidm:busbarSection id="VL_way_100500802-400_BBS1" name="CORNIER JdB1" node="0"/>
                <iidm:switch id="VL_way_100500802-400_D_G_way_100500802-400" name="D G_way_100500802-400" kind="DISCONNECTOR" retained="false" open="false" node1="0" node2="2"/>
                <iidm:switch id="VL_way_100500802-400_BK_G_way_100500802-400" name="BK G_way_100500802-400" kind="BREAKER" retained="false" open="false" node1="2" node2="3"/>
                <iidm:switch id="VL_way_100500802-400_D_L_way_100500802-400" name="D L_way_100500802-400" kind="DISCONNECTOR" retained="false" open="false" node1="0" node2="4"/>
                <iidm:switch id="VL_way_100500802-400_BK_L_way_100500802-400" name="BK L_way_100500802-400" kind="BREAKER" retained="false" open="false" node1="4" node2="5"/>
                <iidm:switch id="VL_way_100500802-400_D_merged_way_100497456-400_1_s2" name="D merged_way_100497456-40_s2" kind="DISCONNECTOR" retained="false" open="false" node1="0" node2="6"/>
                <iidm:switch id="VL_way_100500802-400_BK_merged_way_100497456-400_1_s2" name="BK merged_way_100497456-4_s2" kind="BREAKER" retained="false" open="false" node1="6" node2="7"/>
            </iidm:nodeBreakerTopology>
            <iidm:generator id="G_way_100500802-400" energySource="OTHER" minP="0.0" maxP="671.0526315789473" voltageRegulatorOn="true" targetP="447.36842105263156" targetV="400.0" targetQ="0.0" node="3">
                <iidm:minMaxReactiveLimits minQ="-1.7976931348623157E308" maxQ="1.7976931348623157E308"/>
            </iidm:generator>
            <iidm:load id="L_way_100500802-400" loadType="UNDEFINED" p0="147.63779527559055" q0="14.763779527559056" node="5"/>
        </iidm:voltageLevel>
    </iidm:substation>
    <iidm:substation id="SS_way_104481448-400" name="FEUILLANE" country="FR">
        <iidm:voltageLevel id="VL_way_104481448-400" name="FEUILLANE 400kV" nominalV="400.0" lowVoltageLimit="360.0" highVoltageLimit="440.00000000000006" topologyKind="NODE_BREAKER">
            <iidm:nodeBreakerTopology>
                <iidm:busbarSection id="VL_way_104481448-400_BBS1" name="FEUILLANE JdB1" node="0"/>
                <iidm:switch id="VL_way_104481448-400_D_G_way_104481448-400" name="D G_way_104481448-400" kind="DISCONNECTOR" retained="false" open="false" node1="0" node2="2"/>
                <iidm:switch id="VL_way_104481448-400_BK_G_way_104481448-400" name="BK G_way_104481448-400" kind="BREAKER" retained="false" open="false" node1="2" node2="3"/>
                <iidm:switch id="VL_way_104481448-400_D_L_way_104481448-400" name="D L_way_104481448-400" kind="DISCONNECTOR" retained="false" open="false" node1="0" node2="4"/>
                <iidm:switch id="VL_way_104481448-400_BK_L_way_104481448-400" name="BK L_way_104481448-400" kind="BREAKER" retained="false" open="false" node1="4" node2="5"/>
                <iidm:switch id="VL_way_104481448-400_D_relation_19956190-400_s1" name="D relation_19956190-400_s1" kind="DISCONNECTOR" retained="false" open="false" node1="0" node2="6"/>
                <iidm:switch id="VL_way_104481448-400_BK_relation_19956190-400_s1" name="BK relation_19956190-400_s1" kind="BREAKER" retained="false" open="false" node1="6" node2="7"/>
            </iidm:nodeBreakerTopology>
            <iidm:generator id="G_way_104481448-400" energySource="OTHER" minP="0.0" maxP="671.0526315789473" voltageRegulatorOn="true" targetP="447.36842105263156" targetV="400.0" targetQ="0.0" node="3">
                <iidm:minMaxReactiveLimits minQ="-1.7976931348623157E308" maxQ="1.7976931348623157E308"/>
            </iidm:generator>
            <iidm:load id="L_way_104481448-400" loadType="UNDEFINED" p0="147.63779527559055" q0="14.763779527559056" node="5"/>
        </iidm:voltageLevel>
    </iidm:substation>
    <iidm:substation id="SS_way_105515586-400" name="BRAUD" country="FR">
...